Version 4.1
SHEET 1 880 680
WIRE 464 -48 448 -48
WIRE 336 112 304 112
WIRE 448 112 448 -48
WIRE 448 112 416 112
WIRE 464 112 448 112
WIRE 544 128 544 -48
WIRE 544 128 528 128
WIRE 560 128 544 128
WIRE 656 128 640 128
WIRE 768 128 736 128
WIRE 464 144 448 144
WIRE 448 176 448 144
WIRE 768 224 768 192
FLAG 768 224 0
FLAG 448 176 0
SYMBOL res 432 96 R90
WINDOW 0 0 56 VBottom 2
WINDOW 3 32 56 VTop 2
SYMATTR InstName R1
SYMBOL OpAmps\\UniversalOpAmp2 496 128 R0
SYMATTR InstName U1
SYMBOL OpAmps\\UniversalOpAmp2 272 112 R0
SYMATTR InstName U2
SYMBOL res 656 112 R90
WINDOW 0 0 56 VBottom 2
WINDOW 3 32 56 VTop 2
SYMATTR InstName R2
SYMBOL ind 640 144 R270
WINDOW 0 32 56 VTop 2
WINDOW 3 5 56 VBottom 2
SYMATTR InstName L1
SYMBOL cap 752 128 R0
SYMATTR InstName C1
SYMBOL res 560 -64 R90
WINDOW 0 0 56 VBottom 2
WINDOW 3 32 56 VTop 2
SYMATTR InstName R3
