Version 4.1
SHEET 1 880 680
WIRE 64 96 -48 96
WIRE 192 96 144 96
WIRE 336 96 256 96
WIRE -48 112 -48 96
WIRE 336 128 336 96
WIRE -48 224 -48 192
WIRE 336 224 336 208
WIRE 336 224 -48 224
FLAG -48 224 0
SYMBOL res 320 112 R0
SYMATTR InstName R1
SYMATTR Value 100
SYMBOL cap 256 80 R90
WINDOW 0 0 32 VBottom 2
WINDOW 3 32 32 VTop 2
SYMATTR InstName C1
SYMATTR Value 15.915µ
SYMBOL voltage -48 96 R0
WINDOW 123 24 124 Left 2
WINDOW 39 0 0 Left 0
SYMATTR Value2 AC 1
SYMATTR InstName V1
SYMATTR Value ""
SYMBOL ind 48 112 R270
WINDOW 0 32 56 VTop 2
WINDOW 3 5 56 VBottom 2
SYMATTR InstName L1
SYMATTR Value 159.15m
TEXT 24 288 Left 2 !.ac dec 100 1 159000
