Version 4.1
SHEET 1 1508 680
WIRE 976 0 880 0
WIRE 1088 0 1072 0
WIRE 1216 0 1168 0
WIRE 1344 0 1344 -48
WIRE 1344 0 1296 0
WIRE 1440 0 1344 0
WIRE -112 48 -208 48
WIRE 0 48 -16 48
WIRE 128 48 80 48
WIRE 256 48 256 0
WIRE 256 48 208 48
WIRE 352 48 256 48
WIRE 1344 48 1344 0
WIRE 1440 48 1440 0
WIRE 880 64 880 0
WIRE 256 96 256 48
WIRE 352 96 352 48
WIRE -208 112 -208 48
WIRE -560 144 -560 96
WIRE -432 144 -432 96
WIRE 880 192 880 144
WIRE 1344 192 1344 112
WIRE 1344 192 880 192
WIRE 1440 192 1440 128
WIRE 1440 192 1344 192
WIRE -560 240 -560 224
WIRE -432 240 -432 224
WIRE -208 240 -208 192
WIRE 256 240 256 160
WIRE 256 240 -208 240
WIRE 352 240 352 176
WIRE 352 240 256 240
WIRE 960 304 960 272
WIRE 928 320 912 320
WIRE 1024 336 1024 64
WIRE 1024 336 992 336
WIRE -128 352 -128 320
WIRE 928 352 848 352
WIRE -160 368 -176 368
WIRE -64 384 -64 192
WIRE -64 384 -96 384
WIRE 848 384 848 352
WIRE 992 384 848 384
WIRE -160 400 -224 400
WIRE 960 416 960 368
WIRE 976 416 960 416
WIRE 992 416 992 384
WIRE 1024 416 992 416
WIRE -224 432 -224 400
WIRE 768 432 720 432
WIRE 848 432 848 384
WIRE 944 432 928 432
WIRE 976 448 976 416
WIRE -128 464 -128 416
WIRE 720 464 720 432
WIRE -224 544 -224 512
WIRE 720 560 720 544
WIRE 944 560 944 432
WIRE 944 560 720 560
WIRE 720 576 720 560
FLAG -560 240 0
FLAG -432 240 0
FLAG -208 240 0
FLAG 256 0 VC
IOPIN 256 0 Out
FLAG -176 368 VC
IOPIN -176 368 In
FLAG -224 544 0
FLAG -560 96 VCC
IOPIN -560 96 Out
FLAG -432 96 -VCC
IOPIN -432 96 Out
FLAG -128 320 VCC
IOPIN -128 320 In
FLAG -128 464 -VCC
IOPIN -128 464 In
FLAG 880 192 0
FLAG 1344 -48 VC
IOPIN 1344 -48 Out
FLAG 912 320 VC
IOPIN 912 320 In
FLAG 960 272 VCC
IOPIN 960 272 In
FLAG 720 576 0
FLAG 976 448 -VCC
IOPIN 976 448 In
SYMBOL voltage -208 96 R0
WINDOW 123 0 0 Left 0
WINDOW 39 0 0 Left 0
SYMATTR InstName V1
SYMATTR Value PULSE(0 12 0 0 0 1 0 0)
SYMBOL voltage -432 128 R0
WINDOW 123 0 0 Left 0
WINDOW 39 0 0 Left 0
SYMATTR InstName V2
SYMATTR Value -15
SYMBOL voltage -560 128 R0
WINDOW 123 0 0 Left 0
WINDOW 39 0 0 Left 0
SYMATTR InstName V3
SYMATTR Value 15
SYMBOL ind 112 64 R270
WINDOW 0 32 56 VTop 2
WINDOW 3 5 56 VBottom 2
SYMATTR InstName L1
SYMATTR Value 0.1
SYMBOL res 96 32 R90
WINDOW 0 0 56 VBottom 2
WINDOW 3 32 56 VTop 2
SYMATTR InstName R1
SYMATTR Value 10
SYMBOL res 336 80 R0
SYMATTR InstName R2
SYMATTR Value 100
SYMBOL cap 240 96 R0
SYMATTR InstName C1
SYMATTR Value 220µ
SYMBOL res -80 96 R0
SYMATTR InstName R3
SYMATTR Value 10k
SYMBOL Contrib\\Toshiba\\bjt\\TMBT3904 -112 112 R270
SYMATTR InstName U1
SYMBOL OpAmps\\UniversalOpAmp2 -128 384 R0
SYMATTR InstName U2
SYMBOL voltage -224 416 R0
WINDOW 123 0 0 Left 0
WINDOW 39 0 0 Left 0
SYMATTR InstName V4
SYMATTR Value 5
SYMBOL voltage 880 48 R0
WINDOW 123 0 0 Left 0
WINDOW 39 0 0 Left 0
SYMATTR InstName V5
SYMATTR Value PULSE(0 12 0 0 0 1 0 0)
SYMBOL ind 1200 16 R270
WINDOW 0 32 56 VTop 2
WINDOW 3 5 56 VBottom 2
SYMATTR InstName L2
SYMATTR Value 0.1
SYMBOL res 1184 -16 R90
WINDOW 0 0 56 VBottom 2
WINDOW 3 32 56 VTop 2
SYMATTR InstName R4
SYMATTR Value 10
SYMBOL res 1424 32 R0
SYMATTR InstName R5
SYMATTR Value 100
SYMBOL cap 1328 48 R0
SYMATTR InstName C2
SYMATTR Value 220µ
SYMBOL Contrib\\Toshiba\\bjt\\TMBT3904 976 64 R270
SYMATTR InstName U3
SYMBOL OpAmps\\UniversalOpAmp2 960 336 R0
SYMATTR InstName U4
SYMBOL res 864 416 R90
WINDOW 0 0 56 VBottom 2
WINDOW 3 32 56 VTop 2
SYMATTR InstName R7
SYMATTR Value 10k
SYMBOL res 944 416 R90
WINDOW 0 0 56 VBottom 2
WINDOW 3 32 56 VTop 2
SYMATTR InstName R8
SYMATTR Value 10k
SYMBOL voltage 720 448 R0
WINDOW 123 0 0 Left 0
WINDOW 39 0 0 Left 0
SYMATTR InstName V6
SYMATTR Value 15
SYMBOL res 1008 320 R0
SYMATTR InstName R6
SYMATTR Value 100k
TEXT 144 368 Left 2 !.tran 100m
